12
Coordinates from ORCA-job benzeno123
  C   -0.73756998827372      1.18656465986688     -0.00707255838778
  C   0.61277189844759      1.20553680697348      0.35084925005989
  C   1.35025686407315      0.01898715269841      0.35778511573903
  C   0.73751185407701     -1.18659050331824      0.00705115602248
  C   -0.61277393596053     -1.20555158059637     -0.35084930332582
  C   -1.35027204084679     -0.01896659118018     -0.35779152964373
  H   -1.31125426965374      2.10958093873249     -0.01273183167302
  H   1.08961354272229      2.14325989678483      0.62369011368746
  H   2.40081411996424      0.03390524102759      0.63564584208531
  H   1.31133454351988     -2.10952014643083      0.01285707742628
  H   -1.08962779773726     -2.14326820709874     -0.62369558439432
  H   -2.40080479033211     -0.03393766745933     -0.63574574759578
