12
Coordinates from ORCA-job sxt_benzeno
  C   -0.73756998020251      1.18656466689990     -0.00707259940054
  C   0.61277189190793      1.20553680161307      0.35084927125387
  C   1.35025685899549      0.01898714686731      0.35778514430230
  C   0.73751185152826     -1.18659050530752      0.00705116820220
  C   -0.61277394534598     -1.20555158546332     -0.35084926799983
  C   -1.35027203694045     -0.01896658802466     -0.35779154643317
  H   -1.31125426526730      2.10958094619111     -0.01273185392876
  H   1.08961352825022      2.14325988636108      0.62369016660331
  H   2.40081413444556      0.03390524879403      0.63564579479517
  H   1.31133455524220     -2.10952013920645      0.01285703109494
  H   -1.08962780660907     -2.14326821408117     -0.62369554412669
  H   -2.40080478600434     -0.03393766464339     -0.63574576436280
